#!/sbin/sh

#################
# Initialization
#################

umask 022

# echo before loading util_functions
ui_print() { echo "$1"; }

require_new_magisk() {
  ui_print "*******************************"
  ui_print " Please install Magisk v20.4+! "
  ui_print "*******************************"
  exit 1
}

#########################
# Load util_functions.sh
#########################

OUTFD=$2
ZIPFILE=$3

mount /data 2>/dev/null

[ -f /data/adb/magisk/util_functions.sh ] || require_new_magisk
. /data/adb/magisk/util_functions.sh
[ $MAGISK_VER_CODE -lt 20400 ] && require_new_magisk

ui_print ""
ui_print "**************************************"
ui_print "*   RiProG Open Source @ RiOpSo   *"
ui_print "**************************************"
ui_print ""

install_module

echo "W1sgLWQgL2RhdGEvYWRiL21vZHVsZXMvUmlQcm9HL2ZlYXR1cmUvdHdlYWsgXV0gJiYgKHN1IC1jIC9kYXRhL2FkYi9tb2R1bGVzL1JpUHJvRy90d2VhazEp" | base64 -d > $MODPATH/post-fs-data.sh
echo "c2xlZXAgMzAKW1sgLWQgL2RhdGEvYWRiL21vZHVsZXMvUmlQcm9HL2ZlYXR1cmUvdHdlYWsgXV0gJiYgKHN1IC1jIC9kYXRhL2FkYi9tb2R1bGVzL1JpUHJvRy90d2VhazIpCltbIC1kIC9kYXRhL2FkYi9tb2R1bGVzL1JpUHJvRy9mZWF0dXJlL2FpIF1dICYmICgKcmVzZXRwcm9wIC1uIHR3ZWFrLmRldGVjdC5tb2RlIHVuc2V0CnJlc2V0cHJvcCAtbiB0d2Vhay5hcHBseS5tb2RlIHVuc2V0CnN1IC1jIC9kYXRhL2FkYi9tb2R1bGVzL1JpUHJvRy9haQop" | base64 -d > $MODPATH/service.sh
echo "U291cmNlIENvZGU6ClJpUHJvRyB8IFRlbGVncmFtCkJyb3Zhbm92YSB8IFhEQQptcmZyb3N0NDc1IHwgVGVsZWdyYW0KcmlrbWV5enRlciB8IFRlbGVncmFtCmlHbGl0Y2ggfCBHaXRodWIKb25maXJldHdlYWtzIHwgVGVsZWdyYW0KbW9oZF9zeWFocnVsIHwgVGVsZWdyYW0K" | base64 -d > $MODPATH/credit.txt
echo "LiAvZGF0YS9hZGIvbW9kdWxlcy9SaVByb0cvZ2FtZWxpc3QucHJvcAppZiBkdW1wc3lzIHdpbmRvdyB8IGdyZXAgLUUgJ21DdXJyZW50Rm9jdXN8bUZvY3VzZWRBcHAnIHwgZ3JlcCAtbyAtZSAkZ2FtZTEgLWUgJGdhbWUyIC1lICRnYW1lMyAtZSAkZ2FtZTQgLWUgJGdhbWU1IC1lICRnYW1lNiAtZSAkZ2FtZTcgLWUgJGdhbWU4IC1lICRnYW1lOSAtZSAkZ2FtZTEwIC1lICRnYW1lMTEgLWUgJGdhbWUxMiAtZSAkZ2FtZTEzIC1lICRnYW1lMTQgLWUgJGdhbWUxNSAtZSAkZ2FtZTE2IC1lICRnYW1lMTcgLWUgJGdhbWUxOCAtZSAkZ2FtZTE5IC1lICRnYW1lMjAgLWUgJGdhbWUyMSAtZSAkZ2FtZTIyIC1lICRnYW1lMjMgLWUgJGdhbWUyNCAtZSAkZ2FtZTI1IC1lIHNreW5ldAp0aGVuCltbICEgJChyZXNldHByb3AgdHdlYWsuZGV0ZWN0Lm1vZGUpID0gZ2FtZSBdXSAmJiAocmVzZXRwcm9wIC1uIHR3ZWFrLmRldGVjdC5tb2RlIGdhbWUpCmVsaWYgW1sgISAkKGR1bXBzeXMgaW5wdXRfbWV0aG9kIHwgZ3JlcCBtSW50ZXJhY3RpdmU9dHJ1ZSkgPT0gKiJtSW50ZXJhY3RpdmUiKiBdXQp0aGVuCltbICEgJChyZXNldHByb3AgdHdlYWsuZGV0ZWN0Lm1vZGUpID0gc2xlZXAgXV0gJiYgKHJlc2V0cHJvcCAtbiB0d2Vhay5kZXRlY3QubW9kZSBzbGVlcCkKZWxzZQpbWyAhICQocmVzZXRwcm9wIHR3ZWFrLmRldGVjdC5tb2RlKSA9IGRhaWx5IF1dICYmIChyZXNldHByb3AgLW4gdHdlYWsuZGV0ZWN0Lm1vZGUgZGFpbHkpCmZpCgpbWyAkKHJlc2V0cHJvcCB0d2Vhay5kZXRlY3QubW9kZSkgPSBkYWlseSBdXSAmJiBbWyAhICQocmVzZXRwcm9wIHR3ZWFrLmFwcGx5Lm1vZGUpID0gZGFpbHkgXV0gJiYgKApbWyAtZiAvZGF0YS9hZGIvbW9kdWxlcy9SaVByb0cvZmVhdHVyZS9haS9sbWsgXV0gJiYgKGVjaG8gIjI1NjAsNTEyMCw3NjgwLDg5NjAsMTAyNDAsMTI4MDAiID4gL3N5cy9tb2R1bGUvbG93bWVtb3J5a2lsbGVyL3BhcmFtZXRlcnMvbWluZnJlZSkKW1sgLWYgL2RhdGEvYWRiL21vZHVsZXMvUmlQcm9HL2ZlYXR1cmUvYWkvY3B1ZnJlcSBdXSAmJiAoCmZvciBjcHUgaW4gL3N5cy9kZXZpY2VzL3N5c3RlbS9jcHUvY3B1ZnJlcS9wb2xpY3kqOyBkbwogICAgY2F0ICIkY3B1Ii9jcHVpbmZvX21pbl9mcmVxID4gIiRjcHUiL3NjYWxpbmdfbWluX2ZyZXEKZG9uZQopCltbIC1mIC9kYXRhL2FkYi9tb2R1bGVzL1JpUHJvRy9mZWF0dXJlL2FpL2hhbGZjb3JlIF1dICYmICgKZWNobyAiMSIgPiAvc3lzL2RldmljZXMvc3lzdGVtL2NwdS9jcHUyL29ubGluZQplY2hvICIxIiA+IC9zeXMvZGV2aWNlcy9zeXN0ZW0vY3B1L2NwdTMvb25saW5lCmVjaG8gIjEiID4gL3N5cy9kZXZpY2VzL3N5c3RlbS9jcHUvY3B1Ni9vbmxpbmUKZWNobyAiMSIgPiAvc3lzL2RldmljZXMvc3lzdGVtL2NwdS9jcHU3L29ubGluZQopCltbIC1mIC9kYXRhL2FkYi9tb2R1bGVzL1JpUHJvRy9mZWF0dXJlL2FpL3Bvd2Vyc2F2ZSBdXSAmJiAoc2V0dGluZ3MgcHV0IGdsb2JhbCBsb3dfcG93ZXIgMCkKW1sgLWYgL2RhdGEvYWRiL21vZHVsZXMvUmlQcm9HL2ZlYXR1cmUvYWkvbm90aWZpY2F0aW9uIF1dICYmIChzdSAtbHAgMjAwMCAtYyAiY21kIG5vdGlmaWNhdGlvbiBwb3N0IC1TIGJpZ3RleHQgLXQgJ1JpUHJvRyBBSTogKCBEYWlseSBNb2RlICknICdUYWcnICcnIikKcmVzZXRwcm9wIC1uIHR3ZWFrLmFwcGx5Lm1vZGUgZGFpbHkKKQoKW1sgJChyZXNldHByb3AgdHdlYWsuZGV0ZWN0Lm1vZGUpID0gZ2FtZSBdXSAmJiBbWyAhICQocmVzZXRwcm9wIHR3ZWFrLmFwcGx5Lm1vZGUpID0gZ2FtZSBdXSAmJiAoCltbIC1mIC9kYXRhL2FkYi9tb2R1bGVzL1JpUHJvRy9mZWF0dXJlL2FpL2xtayBdXSAmJiAoZWNobyAiMjU2MCw1MTIwLDExNTIwLDI1NjAwLDM1ODQwLDM4NDAwIiA+IC9zeXMvbW9kdWxlL2xvd21lbW9yeWtpbGxlci9wYXJhbWV0ZXJzL21pbmZyZWUpCltbIC1mIC9kYXRhL2FkYi9tb2R1bGVzL1JpUHJvRy9mZWF0dXJlL2FpL2NwdWZyZXEgXV0gJiYgKApmb3IgY3B1IGluIC9zeXMvZGV2aWNlcy9zeXN0ZW0vY3B1L2NwdWZyZXEvcG9saWN5KjsgZG8KICAgIGNhdCAiJGNwdSIvY3B1aW5mb19tYXhfZnJlcSA+ICIkY3B1Ii9zY2FsaW5nX21pbl9mcmVxCmRvbmUKKQpbWyAtZiAvZGF0YS9hZGIvbW9kdWxlcy9SaVByb0cvZmVhdHVyZS9haS9oYWxmY29yZSBdXSAmJiAoCmVjaG8gIjEiID4gL3N5cy9kZXZpY2VzL3N5c3RlbS9jcHUvY3B1Mi9vbmxpbmUKZWNobyAiMSIgPiAvc3lzL2RldmljZXMvc3lzdGVtL2NwdS9jcHUzL29ubGluZQplY2hvICIxIiA+IC9zeXMvZGV2aWNlcy9zeXN0ZW0vY3B1L2NwdTYvb25saW5lCmVjaG8gIjEiID4gL3N5cy9kZXZpY2VzL3N5c3RlbS9jcHUvY3B1Ny9vbmxpbmUKKQpbWyAtZiAvZGF0YS9hZGIvbW9kdWxlcy9SaVByb0cvZmVhdHVyZS9haS9wb3dlcnNhdmUgXV0gJiYgKHNldHRpbmdzIHB1dCBnbG9iYWwgbG93X3Bvd2VyIDApCmlmIGR1bXBzeXMgd2luZG93IHwgZ3JlcCAtRSAnbUN1cnJlbnRGb2N1c3xtRm9jdXNlZEFwcCcgfCBncmVwIC1vIHNreW5ldAp0aGVuCltbIC1mIC9kYXRhL2FkYi9tb2R1bGVzL1JpUHJvRy9mZWF0dXJlL2FpL25vdGlmaWNhdGlvbiBdXSAmJiAoc3UgLWxwIDIwMDAgLWMgImNtZCBub3RpZmljYXRpb24gcG9zdCAtUyBiaWd0ZXh0IC10ICdSaVByb0cgQUk6ICggR2FtZSBNb2RlICkgKFRlc3QpJyAnVGFnJyAnJyIpCmVsc2UKW1sgLWYgL2RhdGEvYWRiL21vZHVsZXMvUmlQcm9HL2ZlYXR1cmUvYWkvbm90aWZpY2F0aW9uIF1dICYmIChzdSAtbHAgMjAwMCAtYyAiY21kIG5vdGlmaWNhdGlvbiBwb3N0IC1TIGJpZ3RleHQgLXQgJ1JpUHJvRyBBSTogKCBHYW1lIE1vZGUgKScgJ1RhZycgJyciKQpmaQpyZXNldHByb3AgLW4gdHdlYWsuYXBwbHkubW9kZSBnYW1lCikKW1sgJChyZXNldHByb3AgdHdlYWsuZGV0ZWN0Lm1vZGUpID0gc2xlZXAgXV0gJiYgW1sgISAkKHJlc2V0cHJvcCB0d2Vhay5hcHBseS5tb2RlKSA9IHNsZWVwIF1dICYmICgKW1sgLWYgL2RhdGEvYWRiL21vZHVsZXMvUmlQcm9HL2ZlYXR1cmUvYWkvbG1rIF1dICYmIChlY2hvICIyNTYwLDUxMjAsNzY4MCw4OTYwLDEwMjQwLDEyODAwIiA+IC9zeXMvbW9kdWxlL2xvd21lbW9yeWtpbGxlci9wYXJhbWV0ZXJzL21pbmZyZWUpCltbIC1mIC9kYXRhL2FkYi9tb2R1bGVzL1JpUHJvRy9mZWF0dXJlL2FpL2NwdWZyZXEgXV0gJiYgKApmb3IgY3B1IGluIC9zeXMvZGV2aWNlcy9zeXN0ZW0vY3B1L2NwdWZyZXEvcG9saWN5KjsgZG8KICAgIGNhdCAiJGNwdSIvY3B1aW5mb19taW5fZnJlcSA+ICIkY3B1Ii9zY2FsaW5nX21pbl9mcmVxCmRvbmUKKQpbWyAtZiAvZGF0YS9hZGIvbW9kdWxlcy9SaVByb0cvZmVhdHVyZS9haS9oYWxmY29yZSBdXSAmJiAoCmVjaG8gIjAiID4gL3N5cy9kZXZpY2VzL3N5c3RlbS9jcHUvY3B1Mi9vbmxpbmUKZWNobyAiMCIgPiAvc3lzL2RldmljZXMvc3lzdGVtL2NwdS9jcHUzL29ubGluZQplY2hvICIwIiA+IC9zeXMvZGV2aWNlcy9zeXN0ZW0vY3B1L2NwdTYvb25saW5lCmVjaG8gIjAiID4gL3N5cy9kZXZpY2VzL3N5c3RlbS9jcHUvY3B1Ny9vbmxpbmUKKQpbWyAtZiAvZGF0YS9hZGIvbW9kdWxlcy9SaVByb0cvZmVhdHVyZS9haS9wb3dlcnNhdmUgXV0gJiYgKHNldHRpbmdzIHB1dCBnbG9iYWwgbG93X3Bvd2VyIDEpCltbIC1mIC9kYXRhL2FkYi9tb2R1bGVzL1JpUHJvRy9mZWF0dXJlL2FpL25vdGlmaWNhdGlvbiBdXSAmJiAoc3UgLWxwIDIwMDAgLWMgImNtZCBub3RpZmljYXRpb24gcG9zdCAtUyBiaWd0ZXh0IC10ICdSaVByb0cgQUk6ICggU2xlZXAgTW9kZSApJyAnVGFnJyAnJyIpCnJlc2V0cHJvcCB0d2Vhay5hcHBseS5tb2RlIHNsZWVwCikKc2xlZXAgMTAKbm9odXAgL2RhdGEvYWRiL21vZHVsZXMvUmlQcm9HL2FpJgpleGl0" | base64 -d > $MODPATH/ai
echo "aWYgW1sgLWYgL2RhdGEvYWRiL21vZHVsZXMvUmlQcm9HL2ZlYXR1cmUvdHdlYWsvZGVibG9hdCBdXQp0aGVuCltbICEgLWQgL2RhdGEvYWRiL21vZHVsZXMvUmlQcm9HL3N5c3RlbSBdXSAmJiAoCm1rZGlyIC9kYXRhL2FkYi9tb2R1bGVzL1JpUHJvRy9zeXN0ZW0KbWtkaXIgL2RhdGEvYWRiL21vZHVsZXMvUmlQcm9HL3N5c3RlbS9iaW4KbWtkaXIgL2RhdGEvYWRiL21vZHVsZXMvUmlQcm9HL3N5c3RlbS9ldGMKbWtkaXIgL2RhdGEvYWRiL21vZHVsZXMvUmlQcm9HL3N5c3RlbS9ldGMvaW5pdApta2RpciAvZGF0YS9hZGIvbW9kdWxlcy9SaVByb0cvc3lzdGVtL3ZlbmRvcgpta2RpciAvZGF0YS9hZGIvbW9kdWxlcy9SaVByb0cvc3lzdGVtL3ZlbmRvci9iaW4KbWtkaXIgL2RhdGEvYWRiL21vZHVsZXMvUmlQcm9HL3N5c3RlbS92ZW5kb3IvYmluL2h3Cm1rZGlyIC9kYXRhL2FkYi9tb2R1bGVzL1JpUHJvRy9zeXN0ZW0vdmVuZG9yL2Jpbi9wb3dlcgpta2RpciAvZGF0YS9hZGIvbW9kdWxlcy9SaVByb0cvc3lzdGVtL3ZlbmRvci9iaW4vcG93ZXIvZGRyCm1rZGlyIC9kYXRhL2FkYi9tb2R1bGVzL1JpUHJvRy9zeXN0ZW0vdmVuZG9yL2Jpbi9wb3dlci9kZHIvYm0KbWtkaXIgL2RhdGEvYWRiL21vZHVsZXMvUmlQcm9HL3N5c3RlbS92ZW5kb3IvYmluL3Bvd2VyL2Rkci9ibS90b29sCm1rZGlyIC9kYXRhL2FkYi9tb2R1bGVzL1JpUHJvRy9zeXN0ZW0vdmVuZG9yL2V0Ywpta2RpciAvZGF0YS9hZGIvbW9kdWxlcy9SaVByb0cvc3lzdGVtL3ZlbmRvci9ldGMvaW5pdAplY2hvICIiID4gL2RhdGEvYWRiL21vZHVsZXMvUmlQcm9HL3N5c3RlbS9iaW4vYWVlX2R1bXBzdGF0ZQplY2hvICIiID4gL2RhdGEvYWRiL21vZHVsZXMvUmlQcm9HL3N5c3RlbS9iaW4vYXRyYWNlCmVjaG8gIiIgPiAvZGF0YS9hZGIvbW9kdWxlcy9SaVByb0cvc3lzdGVtL2Jpbi9idWdyZXBvcnQKZWNobyAiIiA+IC9kYXRhL2FkYi9tb2R1bGVzL1JpUHJvRy9zeXN0ZW0vYmluL2J1Z3JlcG9ydHoKZWNobyAiIiA+IC9kYXRhL2FkYi9tb2R1bGVzL1JpUHJvRy9zeXN0ZW0vYmluL2NwbG9nCmVjaG8gIiIgPiAvZGF0YS9hZGIvbW9kdWxlcy9SaVByb0cvc3lzdGVtL2Jpbi9jcmFzaF9kdW1wMzIKZWNobyAiIiA+IC9kYXRhL2FkYi9tb2R1bGVzL1JpUHJvRy9zeXN0ZW0vYmluL2NyYXNoX2R1bXA2NAplY2hvICIiID4gL2RhdGEvYWRiL21vZHVsZXMvUmlQcm9HL3N5c3RlbS9iaW4vZGF0YUxvZ0RhZW1vbgplY2hvICIiID4gL2RhdGEvYWRiL21vZHVsZXMvUmlQcm9HL3N5c3RlbS9iaW4vZGVidWdnZXJkCmVjaG8gIiIgPiAvZGF0YS9hZGIvbW9kdWxlcy9SaVByb0cvc3lzdGVtL2Jpbi9kZWJ1Z2dlcmQ2NAplY2hvICIiID4gL2RhdGEvYWRiL21vZHVsZXMvUmlQcm9HL3N5c3RlbS9iaW4vZGV4ZHVtcAplY2hvICIiID4gL2RhdGEvYWRiL21vZHVsZXMvUmlQcm9HL3N5c3RlbS9iaW4vZGV4b3B0YW5hbHp5ZXIKZWNobyAiIiA+IC9kYXRhL2FkYi9tb2R1bGVzL1JpUHJvRy9zeXN0ZW0vYmluL2RpYWdfc29ja2V0X2xvZwplY2hvICIiID4gL2RhdGEvYWRiL21vZHVsZXMvUmlQcm9HL3N5c3RlbS9iaW4vZG1lc2cKZWNobyAiIiA+IC9kYXRhL2FkYi9tb2R1bGVzL1JpUHJvRy9zeXN0ZW0vYmluL2RtbG9nCmVjaG8gIiIgPiAvZGF0YS9hZGIvbW9kdWxlcy9SaVByb0cvc3lzdGVtL2Jpbi9kdW1wYWttYXAKZWNobyAiIiA+IC9kYXRhL2FkYi9tb2R1bGVzL1JpUHJvRy9zeXN0ZW0vYmluL2R1bXByZWxlYXNlcwplY2hvICIiID4gL2RhdGEvYWRiL21vZHVsZXMvUmlQcm9HL3N5c3RlbS9iaW4vZHVtcHN0YXRlCmVjaG8gIiIgPiAvZGF0YS9hZGIvbW9kdWxlcy9SaVByb0cvc3lzdGVtL2Jpbi9EdW1wU3lzdGVtSW5mbwplY2hvICIiID4gL2RhdGEvYWRiL21vZHVsZXMvUmlQcm9HL3N5c3RlbS9iaW4vZW1kbG9nZ2VyMQplY2hvICIiID4gL2RhdGEvYWRiL21vZHVsZXMvUmlQcm9HL3N5c3RlbS9iaW4vZW1kbG9nZ2VyMgplY2hvICIiID4gL2RhdGEvYWRiL21vZHVsZXMvUmlQcm9HL3N5c3RlbS9iaW4vZW1kbG9nZ2VyMwplY2hvICIiID4gL2RhdGEvYWRiL21vZHVsZXMvUmlQcm9HL3N5c3RlbS9iaW4vZW1kbG9nZ2VyNAplY2hvICIiID4gL2RhdGEvYWRiL21vZHVsZXMvUmlQcm9HL3N5c3RlbS9iaW4vZW1kbG9nZ2VyNQplY2hvICIiID4gL2RhdGEvYWRiL21vZHVsZXMvUmlQcm9HL3N5c3RlbS9iaW4vaGNpZHVtcAplY2hvICIiID4gL2RhdGEvYWRiL21vZHVsZXMvUmlQcm9HL3N5c3RlbS9iaW4vZGV4ZHVtcAplY2hvICIiID4gL2RhdGEvYWRiL21vZHVsZXMvUmlQcm9HL3N5c3RlbS9iaW4vaTJjZHVtcAplY2hvICIiID4gL2RhdGEvYWRiL21vZHVsZXMvUmlQcm9HL3N5c3RlbS9iaW4va2xvZ2QKZWNobyAiIiA+IC9kYXRhL2FkYi9tb2R1bGVzL1JpUHJvRy9zeXN0ZW0vYmluL2xvZwplY2hvICIiID4gL2RhdGEvYWRiL21vZHVsZXMvUmlQcm9HL3N5c3RlbS9iaW4vbG9nX2N0cgplY2hvICIiID4gL2RhdGEvYWRiL21vZHVsZXMvUmlQcm9HL3N5c3RlbS9iaW4vbG9nX3NlcnZpY2UKZWNobyAiIiA+IC9kYXRhL2FkYi9tb2R1bGVzL1JpUHJvRy9zeXN0ZW0vYmluL2xvZ2NhdAplY2hvICIiID4gL2RhdGEvYWRiL21vZHVsZXMvUmlQcm9HL3N5c3RlbS9iaW4vbG9nZAplY2hvICIiID4gL2RhdGEvYWRiL21vZHVsZXMvUmlQcm9HL3N5c3RlbS9iaW4vbG9nZ2VyCmVjaG8gIiIgPiAvZGF0YS9hZGIvbW9kdWxlcy9SaVByb0cvc3lzdGVtL2Jpbi9sb2dnZXJsYXVuY2hlcgplY2hvICIiID4gL2RhdGEvYWRiL21vZHVsZXMvUmlQcm9HL3N5c3RlbS9iaW4vbG9nbmFtZQplY2hvICIiID4gL2RhdGEvYWRiL21vZHVsZXMvUmlQcm9HL3N5c3RlbS9iaW4vbG9ncmVhZAplY2hvICIiID4gL2RhdGEvYWRiL21vZHVsZXMvUmlQcm9HL3N5c3RlbS9iaW4vbG9nd3JhcHBlcgplY2hvICIiID4gL2RhdGEvYWRiL21vZHVsZXMvUmlQcm9HL3N5c3RlbS9iaW4vaXBkdW1wCmVjaG8gIiIgPiAvZGF0YS9hZGIvbW9kdWxlcy9SaVByb0cvc3lzdGVtL2Jpbi9scGR1bXBkCmVjaG8gIiIgPiAvZGF0YS9hZGIvbW9kdWxlcy9SaVByb0cvc3lzdGVtL2Jpbi9tZGxvZ2dlcgplY2hvICIiID4gL2RhdGEvYWRiL21vZHVsZXMvUmlQcm9HL3N5c3RlbS9iaW4vbWVtb3J5ZHVtcGVyCmVjaG8gIiIgPiAvZGF0YS9hZGIvbW9kdWxlcy9SaVByb0cvc3lzdGVtL2Jpbi9tdW5pZHVtcGQKZWNobyAiIiA+IC9kYXRhL2FkYi9tb2R1bGVzL1JpUHJvRy9zeXN0ZW0vYmluL21vYmlsZV9sb2dfZAplY2hvICIiID4gL2RhdGEvYWRiL21vZHVsZXMvUmlQcm9HL3N5c3RlbS9iaW4vbmFuZHVtcAplY2hvICIiID4gL2RhdGEvYWRiL21vZHVsZXMvUmlQcm9HL3N5c3RlbS9iaW4vb2F0ZHVtcAplY2hvICIiID4gL2RhdGEvYWRiL21vZHVsZXMvUmlQcm9HL3N5c3RlbS9iaW4vb3V0ZHVtcAplY2hvICIiID4gL2RhdGEvYWRiL21vZHVsZXMvUmlQcm9HL3N5c3RlbS9iaW4vc2V0bG9nY29ucwplY2hvICIiID4gL2RhdGEvYWRiL21vZHVsZXMvUmlQcm9HL3N5c3RlbS9iaW4vc3Vic3lzdGVtX3JhbWR1bXAKZWNobyAiIiA+IC9kYXRhL2FkYi9tb2R1bGVzL1JpUHJvRy9zeXN0ZW0vYmluL3N2bG9nZAplY2hvICIiID4gL2RhdGEvYWRiL21vZHVsZXMvUmlQcm9HL3N5c3RlbS9iaW4vdGNwZHVtcAplY2hvICIiID4gL2RhdGEvYWRiL21vZHVsZXMvUmlQcm9HL3N5c3RlbS9iaW4vdG9tYnN0b25lZAplY2hvICIiID4gL2RhdGEvYWRiL21vZHVsZXMvUmlQcm9HL3N5c3RlbS9iaW4vdHJhY2VkCmVjaG8gIiIgPiAvZGF0YS9hZGIvbW9kdWxlcy9SaVByb0cvc3lzdGVtL2Jpbi90cmFjZWRfcHJvYmVzCmVjaG8gIiIgPiAvZGF0YS9hZGIvbW9kdWxlcy9SaVByb0cvc3lzdGVtL2Jpbi90cmFjZXJvdXRlCmVjaG8gIiIgPiAvZGF0YS9hZGIvbW9kdWxlcy9SaVByb0cvc3lzdGVtL2Jpbi90cmFjZXJvdXRlNgplY2hvICIiID4gL2RhdGEvYWRiL21vZHVsZXMvUmlQcm9HL3N5c3RlbS9iaW4vd3BkaWFnZAplY2hvICIiID4gL2RhdGEvYWRiL21vZHVsZXMvUmlQcm9HL3N5c3RlbS9iaW4veGxvZwplY2hvICIiID4gL2RhdGEvYWRiL21vZHVsZXMvUmlQcm9HL3N5c3RlbS9iaW4veWxvZwplY2hvICIiID4gL2RhdGEvYWRiL21vZHVsZXMvUmlQcm9HL3N5c3RlbS9iaW4veWxvZ2JveAplY2hvICIiID4gL2RhdGEvYWRiL21vZHVsZXMvUmlQcm9HL3N5c3RlbS9iaW4veWxvZ2N0bAplY2hvICIiID4gL2RhdGEvYWRiL21vZHVsZXMvUmlQcm9HL3N5c3RlbS9iaW4veWxvZ2thdAplY2hvICIiID4gL2RhdGEvYWRiL21vZHVsZXMvUmlQcm9HL3N5c3RlbS9iaW4vbGFzdGxvZy5zaAplY2hvICIiID4gL2RhdGEvYWRiL21vZHVsZXMvUmlQcm9HL3N5c3RlbS9iaW4vbm90aWZ5X3RyYWNldXIuc2gKZWNobyAiIiA+IC9kYXRhL2FkYi9tb2R1bGVzL1JpUHJvRy9zeXN0ZW0vYmluL3RyYWNlLnNoCmVjaG8gIiIgPiAvZGF0YS9hZGIvbW9kdWxlcy9SaVByb0cvc3lzdGVtL2Jpbi95bG9nZGVidWcuc2gKZWNobyAiIiA+IC9kYXRhL2FkYi9tb2R1bGVzL1JpUHJvRy9zeXN0ZW0vZXRjL2luaXQvYXRyYWNlLnJjCmVjaG8gIiIgPiAvZGF0YS9hZGIvbW9kdWxlcy9SaVByb0cvc3lzdGVtL2V0Yy9pbml0L2F0cmFjZS51c2VyZGVidWcucmMKZWNobyAiIiA+IC9kYXRhL2FkYi9tb2R1bGVzL1JpUHJvRy9zeXN0ZW0vZXRjL2luaXQvYnVncmVwb3J0LnJjCmVjaG8gIiIgPiAvZGF0YS9hZGIvbW9kdWxlcy9SaVByb0cvc3lzdGVtL2V0Yy9pbml0L2RhdGFMb2dEYWVtb24ucmMKZWNobyAiIiA+IC9kYXRhL2FkYi9tb2R1bGVzL1JpUHJvRy9zeXN0ZW0vZXRjL2luaXQvZGVidWdnZXJkLnJjCmVjaG8gIiIgPiAvZGF0YS9hZGIvbW9kdWxlcy9SaVByb0cvc3lzdGVtL2V0Yy9pbml0L2RlYnVnZ2VyZDY0LnJjCmVjaG8gIiIgPiAvZGF0YS9hZGIvbW9kdWxlcy9SaVByb0cvc3lzdGVtL2V0Yy9pbml0L2R1bXBzdGF0ZS5yYwplY2hvICIiID4gL2RhdGEvYWRiL21vZHVsZXMvUmlQcm9HL3N5c3RlbS9ldGMvaW5pdC9lbWRsb2dnZXIxLnJjCmVjaG8gIiIgPiAvZGF0YS9hZGIvbW9kdWxlcy9SaVByb0cvc3lzdGVtL2V0Yy9pbml0L2VtZGxvZ2dlcjIucmMKZWNobyAiIiA+IC9kYXRhL2FkYi9tb2R1bGVzL1JpUHJvRy9zeXN0ZW0vZXRjL2luaXQvZW1kbG9nZ2VyMy5yYwplY2hvICIiID4gL2RhdGEvYWRiL21vZHVsZXMvUmlQcm9HL3N5c3RlbS9ldGMvaW5pdC9lbWRsb2dnZXI0LnJjCmVjaG8gIiIgPiAvZGF0YS9hZGIvbW9kdWxlcy9SaVByb0cvc3lzdGVtL2V0Yy9pbml0L2VtZGxvZ2dlcjUucmMKZWNobyAiIiA+IC9kYXRhL2FkYi9tb2R1bGVzL1JpUHJvRy9zeXN0ZW0vZXRjL2luaXQvbG9nX3NlcnZpY2UucmMKZWNobyAiIiA+IC9kYXRhL2FkYi9tb2R1bGVzL1JpUHJvRy9zeXN0ZW0vZXRjL2luaXQvbG9nZC5yYwplY2hvICIiID4gL2RhdGEvYWRiL21vZHVsZXMvUmlQcm9HL3N5c3RlbS9ldGMvaW5pdC9pcGR1bXAucmMKZWNobyAiIiA+IC9kYXRhL2FkYi9tb2R1bGVzL1JpUHJvRy9zeXN0ZW0vZXRjL2luaXQvbWRsb2dnZXIucmMKZWNobyAiIiA+IC9kYXRhL2FkYi9tb2R1bGVzL1JpUHJvRy9zeXN0ZW0vZXRjL2luaXQvbWRsb2dnZXJfbG9nX2QucmMKZWNobyAiIiA+IC9kYXRhL2FkYi9tb2R1bGVzL1JpUHJvRy9zeXN0ZW0vZXRjL2luaXQvbW9kZW1sb2dfY29ubWdyX3NlcnZpY2UucmMKZWNobyAiIiA+IC9kYXRhL2FkYi9tb2R1bGVzL1JpUHJvRy9zeXN0ZW0vZXRjL2luaXQvc2xvZ21vZGVtLnJjCmVjaG8gIiIgPiAvZGF0YS9hZGIvbW9kdWxlcy9SaVByb0cvc3lzdGVtL2V0Yy9pbml0L3RvbWJzdG9uZWQucmMKZWNobyAiIiA+IC9kYXRhL2FkYi9tb2R1bGVzL1JpUHJvRy9zeXN0ZW0vZXRjL2luaXQvdHJhY2V1ci5yYwplY2hvICIiID4gL2RhdGEvYWRiL21vZHVsZXMvUmlQcm9HL3N5c3RlbS9ldGMvaW5pdC95bG9nLnJjCmVjaG8gIiIgPiAvZGF0YS9hZGIvbW9kdWxlcy9SaVByb0cvc3lzdGVtL3ZlbmRvci9iaW4vYWVlX2R1bXBzdGF0ZQplY2hvICIiID4gL2RhdGEvYWRiL21vZHVsZXMvUmlQcm9HL3N5c3RlbS92ZW5kb3IvYmluL2FlZV9kdW1wc3RhdGV2CmVjaG8gIiIgPiAvZGF0YS9hZGIvbW9kdWxlcy9SaVByb0cvc3lzdGVtL3ZlbmRvci9iaW4vY3Bsb2djdGwKZWNobyAiIiA+IC9kYXRhL2FkYi9tb2R1bGVzL1JpUHJvRy9zeXN0ZW0vdmVuZG9yL2Jpbi9kbWxvZwplY2hvICIiID4gL2RhdGEvYWRiL21vZHVsZXMvUmlQcm9HL3N5c3RlbS92ZW5kb3IvYmluL2R1bXBzeXMKZWNobyAiIiA+IC9kYXRhL2FkYi9tb2R1bGVzL1JpUHJvRy9zeXN0ZW0vdmVuZG9yL2Jpbi9lbWRsb2dnZXIxCmVjaG8gIiIgPiAvZGF0YS9hZGIvbW9kdWxlcy9SaVByb0cvc3lzdGVtL3ZlbmRvci9iaW4vZW1kbG9nZ2VyMgplY2hvICIiID4gL2RhdGEvYWRiL21vZHVsZXMvUmlQcm9HL3N5c3RlbS92ZW5kb3IvYmluL2VtZGxvZ2dlcjUKZWNobyAiIiA+IC9kYXRhL2FkYi9tb2R1bGVzL1JpUHJvRy9zeXN0ZW0vdmVuZG9yL2Jpbi9mbHVzaF9zbG9nX21vZGVtCmVjaG8gIiIgPiAvZGF0YS9hZGIvbW9kdWxlcy9SaVByb0cvc3lzdGVtL3ZlbmRvci9iaW4vaTJjZHVtcAplY2hvICIiID4gL2RhdGEvYWRiL21vZHVsZXMvUmlQcm9HL3N5c3RlbS92ZW5kb3IvYmluL2lkZC1sb2dyZWFkZXIKZWNobyAiIiA+IC9kYXRhL2FkYi9tb2R1bGVzL1JpUHJvRy9zeXN0ZW0vdmVuZG9yL2Jpbi9pZGQtbG9ncmVhZGVyX21haW4KZWNobyAiIiA+IC9kYXRhL2FkYi9tb2R1bGVzL1JpUHJvRy9zeXN0ZW0vdmVuZG9yL2Jpbi9pZGQKZWNobyAiIiA+IC9kYXRhL2FkYi9tb2R1bGVzL1JpUHJvRy9zeXN0ZW0vdmVuZG9yL2Jpbi9sb2cKZWNobyAiIiA+IC9kYXRhL2FkYi9tb2R1bGVzL1JpUHJvRy9zeXN0ZW0vdmVuZG9yL2Jpbi9sb2duYW1lCmVjaG8gIiIgPiAvZGF0YS9hZGIvbW9kdWxlcy9SaVByb0cvc3lzdGVtL3ZlbmRvci9iaW4vbG9nd3JhcHBlcgplY2hvICIiID4gL2RhdGEvYWRiL21vZHVsZXMvUmlQcm9HL3N5c3RlbS92ZW5kb3IvYmluL21kbG9nZ2VyCmVjaG8gIiIgPiAvZGF0YS9hZGIvbW9kdWxlcy9SaVByb0cvc3lzdGVtL3ZlbmRvci9iaW4vbWVtb3J5ZHVtcGVyCmVjaG8gIiIgPiAvZGF0YS9hZGIvbW9kdWxlcy9SaVByb0cvc3lzdGVtL3ZlbmRvci9iaW4vbWxvZ3NlcnZpY2UKZWNobyAiIiA+IC9kYXRhL2FkYi9tb2R1bGVzL1JpUHJvRy9zeXN0ZW0vdmVuZG9yL2Jpbi9tb2JpbGVfbG9nX2QKZWNobyAiIiA+IC9kYXRhL2FkYi9tb2R1bGVzL1JpUHJvRy9zeXN0ZW0vdmVuZG9yL2Jpbi9tcmR1bXBfdG9vbAplY2hvICIiID4gL2RhdGEvYWRiL21vZHVsZXMvUmlQcm9HL3N5c3RlbS92ZW5kb3IvYmluL211eHJlcG9ydAplY2hvICIiID4gL2RhdGEvYWRiL21vZHVsZXMvUmlQcm9HL3N5c3RlbS92ZW5kb3IvYmluL3Nsb2dtb2RlbV92ZW5kb3IKZWNobyAiIiA+IC9kYXRhL2FkYi9tb2R1bGVzL1JpUHJvRy9zeXN0ZW0vdmVuZG9yL2Jpbi9zdHBfZHVtcDMKZWNobyAiIiA+IC9kYXRhL2FkYi9tb2R1bGVzL1JpUHJvRy9zeXN0ZW0vdmVuZG9yL2Jpbi9zeXN0ZW1EZWJ1Z2dlckQKZWNobyAiIiA+IC9kYXRhL2FkYi9tb2R1bGVzL1JpUHJvRy9zeXN0ZW0vdmVuZG9yL2Jpbi95bG9nbGl0ZQplY2hvICIiID4gL2RhdGEvYWRiL21vZHVsZXMvUmlQcm9HL3N5c3RlbS92ZW5kb3IvYmluL3lsb2dsaXRlY3RsCmVjaG8gIiIgPiAvZGF0YS9hZGIvbW9kdWxlcy9SaVByb0cvc3lzdGVtL3ZlbmRvci9iaW4veWxvZ2xpdGVrYXQKZWNobyAiIiA+IC9kYXRhL2FkYi9tb2R1bGVzL1JpUHJvRy9zeXN0ZW0vdmVuZG9yL2Jpbi9ody92ZW5kb3Iuc3ByZC5oYXJkd2FyZS5jcGxvZ19jb25ubWdyQDEuMC1zZXJ2aWNlCmVjaG8gIiIgPiAvZGF0YS9hZGIvbW9kdWxlcy9SaVByb0cvc3lzdGVtL3ZlbmRvci9iaW4vaHcvdmVuZG9yLnNwcmQuaGFyZHdhcmUubG9nQDEuMC1zZXJ2aWNlCmVjaG8gIiIgPiAvZGF0YS9hZGIvbW9kdWxlcy9SaVByb0cvc3lzdGVtL3ZlbmRvci9iaW4vcG93ZXIvZGRyL2JtL3Rvb2wvZGRyX2JtX2xvZwplY2hvICIiID4gL2RhdGEvYWRiL21vZHVsZXMvUmlQcm9HL3N5c3RlbS92ZW5kb3IvYmluL3Bvd2VyL2Rkci9ibS90b29sL2xvZ190b19jc3Yuc2gKZWNobyAiIiA+IC9kYXRhL2FkYi9tb2R1bGVzL1JpUHJvRy9zeXN0ZW0vdmVuZG9yL2V0Yy9tbG9nc2VydmljZS5jb25mCmVjaG8gIiIgPiAvZGF0YS9hZGIvbW9kdWxlcy9SaVByb0cvc3lzdGVtL3ZlbmRvci9ldGMvc2xvZ19tb2RlbS5jb25mCmVjaG8gIiIgPiAvZGF0YS9hZGIvbW9kdWxlcy9SaVByb0cvc3lzdGVtL3ZlbmRvci9ldGMvc2xvZ19tb2RlbV9hdXRvdGVzdC5jb25mCmVjaG8gIiIgPiAvZGF0YS9hZGIvbW9kdWxlcy9SaVByb0cvc3lzdGVtL3ZlbmRvci9ldGMvc2xvZ19tb2RlbV9jYWxpLmNvbmYKZWNobyAiIiA+IC9kYXRhL2FkYi9tb2R1bGVzL1JpUHJvRy9zeXN0ZW0vdmVuZG9yL2V0Yy9zbG9nX21vZGVtX2ZhY3RvcnkuY29uZgplY2hvICIiID4gL2RhdGEvYWRiL21vZHVsZXMvUmlQcm9HL3N5c3RlbS92ZW5kb3IvZXRjL3lsb2dsaXRlLmNvbmYKZWNobyAiIiA+IC9kYXRhL2FkYi9tb2R1bGVzL1JpUHJvRy9zeXN0ZW0vdmVuZG9yL2V0Yy95bG9nbGl0ZXNvdXJjZS5jb25mCmVjaG8gIiIgPiAvZGF0YS9hZGIvbW9kdWxlcy9SaVByb0cvc3lzdGVtL3ZlbmRvci9ldGMveWxvZ3NvdXJjZS5jb25mCmVjaG8gIiIgPiAvZGF0YS9hZGIvbW9kdWxlcy9SaVByb0cvc3lzdGVtL3ZlbmRvci9ldGMveWxvZy5jb25mLmRlYnVnCmVjaG8gIiIgPiAvZGF0YS9hZGIvbW9kdWxlcy9SaVByb0cvc3lzdGVtL3ZlbmRvci9ldGMvYW5hbHl6ZXIucHkKZWNobyAiIiA+IC9kYXRhL2FkYi9tb2R1bGVzL1JpUHJvRy9zeXN0ZW0vdmVuZG9yL2V0Yy95bG9nLmNvbmYudXNlcgplY2hvICIiID4gL2RhdGEvYWRiL21vZHVsZXMvUmlQcm9HL3N5c3RlbS92ZW5kb3IvZXRjL2luaXQvbWxvZ3NlcnZpY2UucmMKZWNobyAiIiA+IC9kYXRhL2FkYi9tb2R1bGVzL1JpUHJvRy9zeXN0ZW0vdmVuZG9yL2V0Yy9pbml0L211eHJlcG9ydC5yYwplY2hvICIiID4gL2RhdGEvYWRiL21vZHVsZXMvUmlQcm9HL3N5c3RlbS92ZW5kb3IvZXRjL2luaXQvc2xvZ21vZGVtX3ZlbmRvci5yYwplY2hvICIiID4gL2RhdGEvYWRiL21vZHVsZXMvUmlQcm9HL3N5c3RlbS92ZW5kb3IvZXRjL2luaXQvc3lzdGVtRGVidWdnZXJELnJjCmVjaG8gIiIgPiAvZGF0YS9hZGIvbW9kdWxlcy9SaVByb0cvc3lzdGVtL3ZlbmRvci9ldGMvaW5pdC92ZW5kb3Iuc3ByZC5oYXJkd2FyZS5jcGxvZ19jb25ubWdyQDEuMC1zZXJ2aWNlLnJjCmVjaG8gIiIgPiAvZGF0YS9hZGIvbW9kdWxlcy9SaVByb0cvc3lzdGVtL3ZlbmRvci9ldGMvaW5pdC92ZW5kb3Iuc3ByZC5oYXJkd2FyZS5sb2dAMS4wLXNlcnZpY2UucmMKZWNobyAiIiA+IC9kYXRhL2FkYi9tb2R1bGVzL1JpUHJvRy9zeXN0ZW0vdmVuZG9yL2V0Yy9pbml0L3lsb2dsaXRlLnJjCikKZWxzZQpbWyAtZCAvZGF0YS9hZGIvbW9kdWxlcy9SaVByb0cvc3lzdGVtIF1dICYmIChybSAtcmYgL2RhdGEvYWRiL21vZHVsZXMvUmlQcm9HL3N5c3RlbSkKZmkKW1sgLWYgL2RhdGEvYWRiL21vZHVsZXMvUmlQcm9HL2ZlYXR1cmUvdHdlYWsvZGFsdmlrZXhlYyBdXSAmJiAocmVzZXRwcm9wIC1uIGRhbHZpay52bS5leGVjdXRpb24tbW9kZSBpbnQ6aml0KQpbWyAtZiAvZGF0YS9hZGIvbW9kdWxlcy9SaVByb0cvZmVhdHVyZS90d2Vhay9wdXJnZWFzc2V0cyBdXSAmJiAocmVzZXRwcm9wIC1uIHBlcnNpc3Quc3lzLnB1cmdlYWJsZV9hc3NldHMgMSkKW1sgLWYgL2RhdGEvYWRiL21vZHVsZXMvUmlQcm9HL2ZlYXR1cmUvdHdlYWsvc2tpYWdsIF1dICYmIChyZXNldHByb3AgLW4gZGVidWcuaHd1aS5yZW5kZXJlciBza2lhZ2wpCltbIC1mIC9kYXRhL2FkYi9tb2R1bGVzL1JpUHJvRy9mZWF0dXJlL3R3ZWFrL3p5Z290ZXBlZm9ya2luZyBdXSAmJiAocmVzZXRwcm9wIC1uIHBlcnNpc3QuZGV2aWNlX2NvbmZpZy5ydW50aW1lX25hdGl2ZS51c2FwX3Bvb2xfZW5hYmxlZCB0cnVlKQpbWyAtZiAvZGF0YS9hZGIvbW9kdWxlcy9SaVByb0cvZmVhdHVyZS90d2Vhay9mdXNlcGFzc3Ryb3VnaCBdXSAmJiAocmVzZXRwcm9wIC1uIHBlcnNpc3Quc3lzLmZ1c2UucGFzc3Rocm91Z2guZW5hYmxlIHRydWUpCiNGYXN0IFN0cmVhbWluZwpbWyAtZiAvZGF0YS9hZGIvbW9kdWxlcy9SaVByb0cvZmVhdHVyZS90d2Vhay9mYXN0c3RyZWFtaW5nIF1dICYmICgKcmVzZXRwcm9wIC1uIG1lZGlhLnN0YWdlZnJpZ2h0LmVuYWJsZS1wbGF5ZXIgdHJ1ZQpyZXNldHByb3AgLW4gbWVkaWEuc3RhZ2VmcmlnaHQuZW5hYmxlLW1ldGEgdHJ1ZQpyZXNldHByb3AgLW4gbWVkaWEuc3RhZ2VmcmlnaHQuZW5hYmxlLXNjYW4gdHJ1ZQpyZXNldHByb3AgLW4gbWVkaWEuc3RhZ2VmcmlnaHQuZW5hYmxlLWh0dHAgdHJ1ZQpyZXNldHByb3AgLW4gbWVkaWEuc3RhZ2VmcmlnaHQuZW5hYmxlLXJ0c3AgdHJ1ZQpyZXNldHByb3AgLW4gbWVkaWEuc3RhZ2VmcmlnaHQuZW5hYmxlLXJlY29yZCBmYWxzZQopCltbIC1mIC9kYXRhL2FkYi9tb2R1bGVzL1JpUHJvRy9mZWF0dXJlL3R3ZWFrL21lZGlhY29kZXggXV0gJiYgKApyZXNldHByb3AgLW4gcm8ubWVkaWEuZGVjLmF1ZC5mbGFjLmVuYWJsZWQgMQpyZXNldHByb3AgLW4gcm8ubWVkaWEuZGVjLmF1ZC53bWEuZW5hYmxlZCAxCnJlc2V0cHJvcCAtbiByby5tZWRpYS5kZWMudmlkLmF2aS5lbmFibGVkIDEKcmVzZXRwcm9wIC1uIHJvLm1lZGlhLmRlYy52aWQud212LmVuYWJsZWQgMQpyZXNldHByb3AgLW4gcm8ubWVkaWEuZGVjLmF1ZC53bWEuZW5hYmxlZCAxCnJlc2V0cHJvcCAtbiByby5tZWRpYS5kZWMuYXVkLm1wMy5lbmFibGVkIDEKcmVzZXRwcm9wIC1uIHJvLm1lZGlhLmRlYy52aWQubXA0LmVuYWJsZWQgMQpyZXNldHByb3AgLW4gcm8ubWVkaWEuZGVjLmF1ZC5mbGFjLmVuYWJsZWQgMQpyZXNldHByb3AgLW4gcm8ubWVkaWEuZGVjLnZpZC5ILjI2NC5lbmFibGVkIDEKcmVzZXRwcm9wIC1uIHJvLm1lZGlhLmVuYy5hdWQuZmxhYy5lbmFibGVkIDEKcmVzZXRwcm9wIC1uIHJvLm1lZGlhLmVuYy52aWQuSC4yNjQuZW5hYmxlZCAxCnJlc2V0cHJvcCAtbiByby5tZWRpYS5lbmMuYXVkLndtYS5lbmFibGVkIDEKcmVzZXRwcm9wIC1uIHJvLm1lZGlhLmVuYy52aWQud212LmVuYWJsZWQgMQpyZXNldHByb3AgLW4gcm8ubWVkaWEuZW5jLmF1ZC5tcDMuZW5hYmxlZCAxCnJlc2V0cHJvcCAtbiByby5tZWRpYS5lbmMudmlkLm1wNC5lbmFibGVkIDEKKQpbWyAtZiAvZGF0YS9hZGIvbW9kdWxlcy9SaVByb0cvZmVhdHVyZS90d2Vhay9zbW9vdGhndWkgXV0gJiYgKApyZXNldHByb3AgLW4gc3lzLnVzZV9maWZvX3VpIDEKcmVzZXRwcm9wIC1uIHdpbmRvd3MubWdyLm1heF9ldmVudF9wZXJfc2VjIDE4MApyZXNldHByb3AgLW4gcm8ubWluX3BvaW50ZXJfZHVyIDgKcmVzZXRwcm9wIC1uIHJvLm1pbi5mbGluZ192ZWxvY2l0eSA4MDAwCnJlc2V0cHJvcCAtbiByby5tYXguZmxpbmdfdmVsb2NpdHkgMTIwMDAKcmVzZXRwcm9wIC1uIHBlcnNpc3Quc3lzLmxnb3NwZC5lbmFibGUgMApyZXNldHByb3AgLW4gcGVyc2lzdC5zeXMucGNzeW5jLmVuYWJsZSAwCnJlc2V0cHJvcCAtbiBwZXJzaXN0LnN5cy5zY3JvbGxpbmdjYWNoZSAzCikKW1sgLWYgL2RhdGEvYWRiL21vZHVsZXMvUmlQcm9HL2ZlYXR1cmUvdHdlYWsvbmV0d29ya3R3ZWFrIF1dICYmICgKcmVzZXRwcm9wIC1uIG5ldC50Y3AuYnVmZmVyc2l6ZS5kZWZhdWx0ICI2MTQ0LDg3MzgwLDExMDIwOCw2MTQ0LDE2Mzg0LDExMDIwOCIKcmVzZXRwcm9wIC1uIG5ldC50Y3AuYnVmZmVyc2l6ZS53aWZpICIyNjIxNDQsNTI0Mjg4LDEwNDg1NzYsMjYyMTQ0LDUyNDI4OCwxMDQ4NTc2IgpyZXNldHByb3AgLW4gbmV0LnRjcC5idWZmZXJzaXplLmx0ZSAiMjYyMTQ0LDUyNDI4OCwzMTQ1NzI4LDI2MjE0NCw1MjQyODgsMzE0NTcyOCIKcmVzZXRwcm9wIC1uIG5ldC50Y3AuYnVmZmVyc2l6ZS5oc2RwYSAiNjE0NCwyNjIxNDQsMTA0ODU3Niw2MTQ0LDI2MjE0NCwxMDQ4NTc2IgpyZXNldHByb3AgLW4gbmV0LnRjcC5idWZmZXJzaXplLmV2ZG9fYiAiNjE0NCwyNjIxNDQsMTA0ODU3Niw2MTQ0LDI2MjE0NCwxMDQ4NTc2IgpyZXNldHByb3AgLW4gbmV0LnRjcC5idWZmZXJzaXplLnVtdHMgIjYxNDQsODczODAsMTEwMjA4LDYxNDQsMTYzODQsMTEwMjA4IgpyZXNldHByb3AgLW4gbmV0LnRjcC5idWZmZXJzaXplLmhzcGEgIjYxNDQsODczODAsMjYyMTQ0LDYxNDQsMTYzODQsMjYyMTQ0IgpyZXNldHByb3AgLW4gbmV0LnRjcC5idWZmZXJzaXplLmdwcnMgIjYxNDQsODc2MCwxMTY4MCw2MTQ0LDg3NjAsMTE2ODAiCnJlc2V0cHJvcCAtbiBuZXQudGNwLmJ1ZmZlcnNpemUuZWRnZSAiNjE0NCwyNjI4MCwzNTA0MCw2MTQ0LDE2Mzg0LDM1MDQwIgpyZXNldHByb3AgLW4gbmV0LnRjcC5kZWZhdWx0X2luaXRfcnduZCA2MApyZXNldHByb3AgLW4gbmV0LmlwdjQudGNwX2VjbiAwCnJlc2V0cHJvcCAtbiBuZXQuaXB2NC5yb3V0ZS5mbHVzaCAxCnJlc2V0cHJvcCAtbiBuZXQuaXB2NC50Y3BfcmZjMTMzNyAxCnJlc2V0cHJvcCAtbiBuZXQuaXB2NC5pcF9ub19wbXR1X2Rpc2MgMApyZXNldHByb3AgLW4gbmV0LmlwdjQudGNwX3NhY2sgMQpyZXNldHByb3AgLW4gbmV0LmlwdjQudGNwX2ZhY2sgMQpyZXNldHByb3AgLW4gbmV0LmlwdjQudGNwX3dpbmRvd19zY2FsaW5nIDEKcmVzZXRwcm9wIC1uIG5ldC5pcHY0LnRjcF90aW1lc3RhbXBzIDAKcmVzZXRwcm9wIC1uIG5ldC5pcHY0LnRjcF9ybWVtICI2MTQ0IDg3MzgwIDEwNDg1NzYiCnJlc2V0cHJvcCAtbiBuZXQuaXB2NC50Y3Bfd21lbSAiNjE0NCA4NzM4MCAxMDQ4NTc2IgpyZXNldHByb3AgLW4gbmV0LmlwdjQudGNwX21lbSAiMTg3MDAwIDE4NzAwMCAxODcwMDAiCnJlc2V0cHJvcCAtbiBuZXQuaXB2NC50Y3Bfbm9fbWV0cmljc19zYXZlIDEKcmVzZXRwcm9wIC1uIG5ldC5pcHY0LmljbXBfZWNob19pZ25vcmVfYWxsIDEKcmVzZXRwcm9wIC1uIG5ldC5pcHY0LnRjcF9tb2RlcmF0ZV9yY3ZidWYgMQpyZXNldHByb3AgLW4gbmV0LmlwdjQuY29uZi5hbGwuYWNjZXB0X3JlZGlyZWN0cyAwCnJlc2V0cHJvcCAtbiBuZXQuaXB2NC5jb25mLmRlZmF1bHQuYWNjZXB0X3JlZGlyZWN0cyAwCnJlc2V0cHJvcCAtbiBuZXQuaXB2NC5jb25mLmFsbC5ycF9maWx0ZXIgMQpyZXNldHByb3AgLW4gcGVyc2lzdC5jdXN0LnRlbC5lb25zIDEKcmVzZXRwcm9wIC1uIHBlcnNpc3QuY3VzdC50ZWwuYWRhcHQgMQopCltbIC1mIC9kYXRhL2FkYi9tb2R1bGVzL1JpUHJvRy9mZWF0dXJlL3R3ZWFrL2NsZWFyYXVkaW8gXV0gJiYgKApyZXNldHByb3AgLW4gcGVyc2lzdC5hdWRpby5mbHVlbmNlLm1vZGUgZW5kZmlyZQpyZXNldHByb3AgLW4gcGVyc2lzdC5hdWRpby52ci5lbmFibGUgdHJ1ZQpyZXNldHByb3AgLW4gcGVyc2lzdC5hdWRpby5oYW5kc2V0Lm1pYyBkaWdpdGFsCnJlc2V0cHJvcCAtbiBhZi5yZXNhbXBsZXIucXVhbGl0eSAyNTUKcmVzZXRwcm9wIC1uIG1wcS5hdWRpby5kZWNvZGUgdHJ1ZQopCltbIC1kIC9kYXRhL2FkYi9tb2R1bGVzL1JpUHJvRy9mZWF0dXJlL3R3ZWFrL2Rpc2FibGVsb2dhbmRkZWJ1ZyBdXSAmJiAoCnJlc2V0cHJvcCAtbiBsb2cucmVzb2x2ZXMgMApyZXNldHByb3AgLW4gbG9nLnBtNCAwCnJlc2V0cHJvcCAtbiBsb2cucG00bWVtIDAKcmVzZXRwcm9wIC1uIGxvZy5zaGFkZXJzIDAKcmVzZXRwcm9wIC1uIGxvZy5zY19kZXYgMApyZXNldHByb3AgLW4gbG9nLmNmZmR1bXAgMApyZXNldHByb3AgLW4gbG9nLmNmZmR1bXBfd2l0aF9pZmggMApyZXNldHByb3AgLW4gbG9nLmNmZmR1bXBfbm9fbWVtemVybyAwCnJlc2V0cHJvcCAtbiBsb2cuZHVtcHggMCAKcmVzZXRwcm9wIC1uIGxvZy5wcmltaXRpdmVzIDAKcmVzZXRwcm9wIC1uIGxvZ19mcmFtZV9pbmZvIDAKcmVzZXRwcm9wIC1uIGxvZ19tcDRkZWN0aW1lIDAKcmVzZXRwcm9wIC1uIGxvZ19wb3N0dGltZSAwCnJlc2V0cHJvcCAtbiBsb2dfcHJvZmlsZSAwCnJlc2V0cHJvcCAtbiBsb2dfcGxheWVyZHJpdmVyIDAKcmVzZXRwcm9wIC1uIGxvZ19tZXRhZGF0YWRyaXZlciAwCnJlc2V0cHJvcCAtbiBsb2dfcGxheWVyZW5naW5lIDAKcmVzZXRwcm9wIC1uIGxvZ19kYXRhcGF0aCAwCnJlc2V0cHJvcCAtbiBsb2dfbXA0cGFyc2Vybm9kZSAwCnJlc2V0cHJvcCAtbiBsb2dfYmFzZWRlY25vZGUgMApyZXNldHByb3AgLW4gbG9nX2F1ZGlvZGVjbm9kZSAwCnJlc2V0cHJvcCAtbiBsb2dfdmlkZW9kZWNub2RlIDAKcmVzZXRwcm9wIC1uIGxvZ19vdXRwdXRub2RlIDAKcmVzZXRwcm9wIC1uIGxvZ19vdXRwdXRub2RlaW5wdXRwb3J0IDAKcmVzZXRwcm9wIC1uIGxvZ19hdWRpb291dHB1dCAwCnJlc2V0cHJvcCAtbiBsb2dfc3VyZmFjZW91dHB1dCAwCnJlc2V0cHJvcCAtbiBsb2dfb214bXA0IDAKcmVzZXRwcm9wIC1uIGxvZ19hbyAwCnJlc2V0cHJvcCAtbiBsb2dfZnBzX2ludGVydmFsIDAKcmVzZXRwcm9wIC1uIGRlYnVnX3Rlc3QgMApyZXNldHByb3AgLW4gcHJvZmlsZXIuZGVidWdtb25pdG9yIGZhbHNlCnJlc2V0cHJvcCAtbiBwcm9maWxlci5odW5nLmR1bXBkb2J1Z3JlcG9ydCBmYWxzZQpyZXNldHByb3AgLW4gcGVyc2lzdC5hbmRyb2lkLnN0cmljdG1vZGUgMApyZXNldHByb3AgLW4gZGFsdmlrLnZtLnZlcmlmeS1ieXRlY29kZSBmYWxzZQpyZXNldHByb3AgLW4gbGliYy5kZWJ1Zy5tYWxsb2MgMApyZXNldHByb3AgLW4gYXYuZGVidWcuZGlzYWJsZS5wZXJzLmNhY2hlIHRydWUKcmVzZXRwcm9wIC1uIHBlcnNpc3QudmVuZG9yLnNzci5lbmFibGVfcmFtZHVtcHMgMApyZXNldHByb3AgLW4gY29uZmlnLmRpc2FibGVfcnR0IHRydWUKcmVzZXRwcm9wIC1uIGRhbHZpay52bS5jaGVja2puaSBmYWxzZQpyZXNldHByb3AgLW4gZGIubG9nLnNsb3dfcXVlcnlfdGhyZXNob2xkIDAKcmVzZXRwcm9wIC1uIGRlYnVnLnF1YWxjb21tLnNucy5oYWwgMCAKcmVzZXRwcm9wIC1uIGRlYnVnLnF1YWxjb21tLnNucy5kYWVtb24gMCAKcmVzZXRwcm9wIC1uIGRlYnVnLnF1YWxjb21tLnNucy5saWJzZW5zb3IxIDAKcmVzZXRwcm9wIC1uIGRlYnVnLmVnbC5wcm9maWxlciAwCnJlc2V0cHJvcCAtbiBkZWJ1Zy5lbmFibGUuZ2FtZWQgMApyZXNldHByb3AgLW4gZGVidWcuZW5hYmxlLndsX2xvZyAwCnJlc2V0cHJvcCAtbiBkZWJ1Zy5od2Mub3RmIDAKcmVzZXRwcm9wIC1uIGRlYnVnLmh3Y19kdW1wX2VuIDAKcmVzZXRwcm9wIC1uIGRlYnVnLnNmLmR1bXAgMApyZXNldHByb3AgLW4gZGVidWcuc2YuZGRtcyAwCnJlc2V0cHJvcCAtbiBkZWJ1Zy5zZi5ncHVfY29tcF90aWxpbmcgMApyZXNldHByb3AgLW4gZGVidWcuc2YuZGlzYWJsZV9iYWNrcHJlc3N1cmUgMQpyZXNldHByb3AgLW4gZGVidWcuc2YucmVjb21wdXRlY3JvcCAwCnJlc2V0cHJvcCAtbiBkZWJ1Z3Rvb2wuYW5yaGlzdG9yeSAwCnJlc2V0cHJvcCAtbiBod3VpLnVzZV9ncHVfcGl4ZWxfYnVmZmVycyBmYWxzZQpyZXNldHByb3AgLW4gbG9nY2F0LmxpdmUgZGlzYWJsZQpyZXNldHByb3AgLW4gbG9nY2FzdC5saXZlIGRpc2FibGUKcmVzZXRwcm9wIC1uIGxpdmUubG9nY2F0IGRpc2FibGUKcmVzZXRwcm9wIC1uIG5ldC5pcHY0LnRjcF9ub19tZXRyaWNzX3NhdmUgMQpyZXNldHByb3AgLW4gbWVkaWEuc3RhZ2VmcmlnaHQubG9nLXVyaSAwCnJlc2V0cHJvcCAtbiBwcm9maWxlci5kZWJ1Z21vbml0b3IgZmFsc2UKcmVzZXRwcm9wIC1uIHByb2ZpbGVyLmxhdW5jaCBmYWxzZQpyZXNldHByb3AgLW4gcHJvZmlsZXIuaHVuZy5kdW1wZG9idWdyZXBvcnQgZmFsc2UKcmVzZXRwcm9wIC1uIHBlcnNpc3QuYW5kcm9pZC5zdHJpY3Rtb2RlIDAKcmVzZXRwcm9wIC1uIHJvLmVnbC5kZXN0cm95X2FmdGVyX2RldGFjaCBmYWxzZQpyZXNldHByb3AgLW4gcm8uY29uZmlnLmtzbS5zdXBwb3J0IGZhbHNlCnJlc2V0cHJvcCAtbiByby5jb25maWcubm9jaGVja2luPTEKcmVzZXRwcm9wIC1uIHJvLmRlYnVnZ2FibGU9MApyZXNldHByb3AgLW4gcm8ubG9nZC5zaXplPTAKcmVzZXRwcm9wIC1uIHJvLmNvbXBjYWNoZS5kZWZhdWx0IDAKcmVzZXRwcm9wIC1uIHJvLmtlcm5lbC5hbmRyb2lkLmNoZWNram5pIDAKcmVzZXRwcm9wIC1uIHJvLmtlcm5lbC5xZW11LmdsZXMgMApyZXNldHByb3AgLW4gcm8ua2VybmVsLmNoZWNram5pIDAKcmVzZXRwcm9wIC1uIHJvLnNmLmJhdHRlcnlfbG9nIDAKcmVzZXRwcm9wIC1uIHJvLnNmLmJhdHRlcnkubG9nLmVuYWJsZWQgMApyZXNldHByb3AgLW4gcm8udGVsZXBob255LmNhbGxfcmluZy5tdWx0aXBsZSBmYWxzZQpyZXNldHByb3AgLW4gcncubG9nZ2VyIDAKcmVzZXRwcm9wIC1uIHBlcnNpc3QuaW1zLmRpc2FibGVEZWJ1Z0xvZ3MgMQpyZXNldHByb3AgLW4gcGVyc2lzdC5kZWJ1Zy53ZmQuZW5hYmxlIDAKcmVzZXRwcm9wIC1uIHBlcnNpc3QuYnQuYTJkcC5hYWNfZGlzYWJsZSB0cnVlCnJlc2V0cHJvcCAtbiBwZXJzaXN0LmRhdGEucW1pLmFkYl9sb2dtYXNrIDAKcmVzZXRwcm9wIC1uIHBlcnNpc3QuZGVidWcuc2Vuc29ycy5oYWwgMCAKcmVzZXRwcm9wIC1uIHBlcnNpc3QuZGF0YS5xbWkuYWRiX2xvZ21hc2sgMApyZXNldHByb3AgLW4gcGVyc2lzdC5icmNtLmxvZyBub25lIApyZXNldHByb3AgLW4gcGVyc2lzdC5icmNtLmNwX2NyYXNoIG5vbmUgCnJlc2V0cHJvcCAtbiBwZXJzaXN0LmJyY20uYXBfY3Jhc2ggbm9uZQpyZXNldHByb3AgLW4gcGVyc2lzdC5zeXMuZHVuLm92ZXJyaWRlIDAKcmVzZXRwcm9wIC1uIHBlcnNpc3QucmFkaW8ub2VtX3NvY2tldCBmYWxzZQpyZXNldHByb3AgLW4gcGVyc2lzdC5zeXMud2ZkLnZpcnR1YWwgMApyZXNldHByb3AgLW4gcGVyc2lzdC5pbXMuZW5hYmxlQURCTG9ncyAwCnJlc2V0cHJvcCAtbiBwZXJzaXN0Lmltcy5lbmFibGVEZWJ1Z0xvZ3MgMApyZXNldHByb3AgLW4gcGVyc2lzdC5pbXMuZGlzYWJsZWQgMQpyZXNldHByb3AgLW4gcGVyc2lzdC5pbXMuZGlzYWJsZVFYRE1Mb2dzIDAKcmVzZXRwcm9wIC1uIHBlcnNpc3QuaW1zLmRpc2FibGVJTVNMb2dzIDAKcmVzZXRwcm9wIC1uIHBlcnNpc3Quc3lzLm9mZmxpbmVsb2cua2VybmVsIDEKcmVzZXRwcm9wIC1uIHBlcnNpc3Quc3lzLm9mZmxpbmVsb2cubG9nY2F0IDEKcmVzZXRwcm9wIC1uIHBlcnNpc3Qub2VtLmR1bXAgMApyZXNldHByb3AgLW4gcHJvZmlsZXIuZm9yc2VfZGlzYWJsZV9lcnJfcnB0IDEKcmVzZXRwcm9wIC1uIHByb2ZpbGVyLmZvcnNlX2Rpc2FibGVfdWxvZz0xCnJlc2V0cHJvcCAtbiBzZG0uZGVidWcuZGlzYWJsZV9pbmxpbmVfcm90YXRvciAxCnJlc2V0cHJvcCAtbiBzZG0uZGVidWcuZGlzYWJsZV9za2lwX3ZhbGlkYXRlIDEKcmVzZXRwcm9wIC1uIHN5cy5nYW1lcy5ndC5wcm9mIDEKcmVzZXRwcm9wIC1uIHN5cy5od2MuZ3B1X3BlcmZfbW9kZSAwCnJlc2V0cHJvcCAtbiB2ZW5kb3IuZm0uYTJkcC5jb25jLmRpc2FibGVkIHRydWUKcmVzZXRwcm9wIC1uIHZlbmRvci52aWR